/*---------------------------------------------------------------------------*\
| =========                 |                                                 |
| \\      /  F ield         | OpenFOAM: The Open Source CFD Toolbox           |
|  \\    /   O peration     | Version:  2212                                  |
|   \\  /    A nd           | Website:  www.openfoam.com                      |
|    \\/     M anipulation  |                                                 |
\*---------------------------------------------------------------------------*/
Build  : _fd8c5e00-20221221 OPENFOAM=2212 version=2212
Arch   : "LSB;label=32;scalar=64"
Exec   : pimpleFoam -parallel
Date   : Mar 27 2023
Time   : 14:31:53
Host   : ISTM-hydra
PID    : 648200
I/O    : uncollated
WARNING: running without decomposeParDict "system/decomposeParDict"
Case   : /net/istmhome/users/NaseemAli/OpenFOAM/or1316-v2212/run/ChannelFlowDNS/Re-300-Lx-0.75-Lz-0.4/system
nProcs : 16
Hosts  :
(
    (ISTM-hydra 16)
)
Pstream initialized with:
    floatTransfer      : 0
    nProcsSimpleSum    : 0
    commsType          : nonBlocking
    polling iterations : 0
trapFpe: Floating point exception trapping enabled (FOAM_SIGFPE).
fileModificationChecking : Monitoring run-time modified files using timeStampMaster (fileModificationSkew 5, maxFileModificationPolls 20)
allowSystemOperations : Allowing user-supplied system call operations

// * * * * * * * * * * * * * * * * * * * * * * * * * * * * * * * * * * * * * //
